  216
Comment TcB
CA                  1.71532             1.12967             12.56709            
CA                  1.15893             5.10352             27.87996            
CA                  0.51248             8.28843             43.35136            
CA                  0.10110             12.68111            58.51088            
CA                  -2.39500            14.74601            73.80440            
CA                  -1.56684            16.26971            89.55052            
CA                  -1.52178            17.12357            105.52454           
CA                  0.71654             15.80686            121.15302           
CA                  -0.21486            17.31825            136.81401           
CA                  -0.46309            18.03631            152.58048           
CA                  0.01634             21.55194            168.03788           
CA                  -2.17441            23.65394            183.73709           
CA                  -1.61619            27.99361            198.89174           
CA                  -5.28580            32.11633            213.95718           
CA                  -5.76649            35.86848            229.38661           
CA                  -6.30637            41.90815            244.02145           
CA                  -6.66603            47.61154            258.91251           
CA                  -6.43624            56.45535            272.00203           
CA                  -8.24432            62.94456            286.39211           
CA                  -7.45954            70.77415            300.12236           
CA                  -8.06209            78.89179            314.06608           
CA                  -5.30573            86.25274            327.90138           
CA                  -4.47969            96.17097            340.49594           
CA                  -2.11300            102.64739           354.68477           
CA                  1.40855             111.97673           366.97632           
CA                  2.57115             120.04504           380.94121           
CA                  6.32123             129.33916           393.43388           
CA                  6.21941             139.15516           405.92225           
CA                  8.61664             148.49041           418.31634           
CA                  9.65340             159.42328           429.60213           
CA                  11.60707            167.59531           442.82968           
CA                  13.16127            177.90531           454.61626           
CA                  13.33735            186.96009           467.75977           
CA                  16.71983            195.81796           480.56180           
CA                  17.33763            206.22570           492.35978           
CA                  21.15976            216.23032           504.63091           
CA                  21.58584            228.15584           515.05347           
CA                  22.00046            236.82180           528.16698           
CA                  21.23228            247.15620           540.40551           
CA                  17.91446            255.29632           553.69877           
CA                  16.88946            265.13416           566.04554           
CA                  13.38892            274.75117           578.00421           
CA                  12.33606            283.56782           591.35512           
CA                  10.55089            293.52966           603.37387           
CA                  8.01044             301.63944           616.54519           
CA                  7.11866             312.13215           628.74060           
CA                  4.36680             320.13130           641.87709           
CA                  4.89456             329.43966           654.96875           
CA                  3.22459             339.16140           667.26324           
CA                  4.26907             348.79706           679.91555           
CA                  3.53745             360.82759           689.87136           
CA                  1.83602             371.27963           701.60279           
CA                  0.64602             383.61348           711.30339           
CA                  -3.11866            393.74587           722.62132           
CA                  -4.48009            403.74493           734.81495           
CA                  -8.66546            412.87516           747.27315           
CA                  -11.54724           420.09258           761.12083           
CA                  -15.88730           428.85654           773.45976           
CA                  -20.11023           434.39867           787.66344           
CA                  -24.54236           441.46338           801.28442           
CA                  -30.56554           446.88271           814.89387           
CA                  -33.62977           452.96176           829.08551           
CA                  -39.08116           459.29167           842.57072           
CA                  -42.67922           464.57641           857.22001           
CA                  -47.38097           472.72367           869.86205           
CA                  -52.58549           477.41725           883.94702           
CA                  -57.54373           484.70780           897.25845           
CA                  -63.30950           489.27613           911.07304           
CA                  -67.66682           494.56018           925.38485           
CA                  -73.28952           499.76429           939.26834           
CA                  -76.33796           503.87007           954.25094           
CA                  -80.57853           510.17158           968.34711           
CA                  -83.54834           513.36309           983.63910           
CA                  -84.99268           519.35849           998.34938           
CA                  -88.27730           523.43749           1013.50662          
CA                  -88.45019           527.21015           1029.04412          
CA                  -92.41997           530.15496           1044.11963          
CA                  -93.50559           531.73666           1059.76932          
CA                  -95.94643           535.35405           1074.87245          
CA                  -99.14972           536.18146           1090.56923          
CA                  -101.97457          539.18091           1105.79042          
CA                  -105.74426          540.78313           1121.10070          
CA                  -107.29085          543.81369           1136.61802          
CA                  -112.34702          547.38536           1151.53774          
CA                  -113.84978          548.38739           1167.20101          
CA                  -117.11536          549.88488           1182.67536          
CA                  -119.27718          550.17256           1198.47763          
CA                  -120.05039          553.76915           1213.80478          
CA                  -121.23462          557.11493           1229.09075          
CA                  -119.07808          561.84588           1243.94381          
CA                  -119.89914          566.54262           1259.09683          
CA                  -118.70288          570.14091           1274.43584          
CA                  -119.61378          574.10195           1290.00718          
CA                  -119.85817          573.75756           1306.18308          
CA                  -118.01512          577.01172           1321.43400          
CA                  -119.49470          578.58076           1337.46923          
CA                  -117.71329          580.14480           1353.25339          
CA                  -119.43395          583.79825           1368.66075          
CA                  -119.40256          585.57124           1384.48437          
CA                  -121.84147          591.77740           1398.91787          
CA                  -125.38490          596.34432           1413.82450          
CA                  -127.15732          603.46806           1428.06959          
CA                  -131.25643          608.47407           1442.45007          
CA                  -133.07406          614.70165           1456.81787          
CA                  -138.53144          622.30548           1469.55364          
CA                  -141.46190          628.12811           1483.85955          
CA                  -144.62100          635.56884           1497.56212          
CA                  -149.74127          639.74495           1512.30209          
CA                  -151.47615          647.12649           1526.30722          
CA                  -155.69375          653.42592           1540.23509          
CA                  -156.08009          660.11868           1554.45545          
CA                  -159.79356          667.81656           1567.85050          
CA                  -163.59255          673.31686           1582.22198          
CA                  -167.11643          681.75535           1595.40540          
CA                  -172.52423          687.59515           1609.04095          
CA                  -174.82068          695.75649           1622.54789          
CA                  -178.34075          701.75207           1636.51955          
CA                  -180.24687          706.87634           1651.35629          
CA                  -182.23753          714.47300           1665.07256          
CA                  -183.38089          720.21080           1679.82357          
CA                  -185.68182          727.86163           1693.40791          
CA                  -189.90153          732.48212           1707.83258          
CA                  -193.36202          738.74396           1721.99888          
CA                  -199.12937          743.03605           1735.95698          
CA                  -201.48025          746.86262           1751.13370          
CA                  -205.74687          752.13138           1765.38394          
CA                  -208.69314          754.16853           1781.15359          
CA                  -212.39808          759.65296           1795.76377          
CA                  -216.24053          762.17830           1810.94507          
CA                  -217.39227          767.43853           1825.87274          
CA                  -220.53921          771.81369           1840.73764          
CA                  -221.56872          775.14405           1856.59709          
CA                  -225.45362          780.77536           1870.81954          
CA                  -227.21583          784.35028           1885.99968          
CA                  -230.03001          790.49368           1900.54130          
CA                  -234.61031          794.57318           1915.06943          
CA                  -237.02447          801.43014           1929.37195          
CA                  -242.64546          806.29344           1943.51328          
CA                  -246.30709          811.72719           1957.94031          
CA                  -250.48562          819.59753           1970.93189          
CA                  -253.96235          825.80830           1984.94141          
CA                  -256.89698          834.93892           1997.45016          
CA                  -260.90602          842.85541           2010.47591          
CA                  -264.26109          850.83987           2023.70156          
CA                  -268.36273          858.53011           2036.98326          
CA                  -268.29679          866.68727           2050.54651          
CA                  -270.26230          877.20809           2062.49785          
CA                  -271.82871          886.62732           2075.32145          
CA                  -274.06127          899.13264           2085.02474          
CA                  -277.46095          908.97920           2097.09145          
CA                  -278.02272          919.76898           2108.72872          
CA                  -281.74433          930.03139           2120.05180          
CA                  -282.80611          940.19371           2132.47622          
CA                  -286.63884          952.45468           2142.14109          
CA                  -289.45530          962.33723           2154.18079          
CA                  -290.81877          974.16288           2164.92340          
CA                  -295.36348          983.25852           2177.07108          
CA                  -298.42884          994.10798           2188.24255          
CA                  -305.45529          1003.72227          2198.65160          
CA                  -311.07267          1012.50757          2210.82022          
CA                  -317.33276          1022.59912          2221.39193          
CA                  -322.23666          1031.17782          2233.84398          
CA                  -327.98560          1042.27028          2243.71788          
CA                  -335.23022          1051.69235          2254.43811          
CA                  -338.96517          1063.37352          2264.45944          
CA                  -345.18559          1073.70008          2274.58530          
CA                  -348.70697          1082.98478          2286.92221          
CA                  -353.09794          1095.15453          2296.42110          
CA                  -356.76718          1104.61305          2308.71683          
CA                  -359.75374          1115.27095          2320.05346          
CA                  -364.76105          1123.44499          2332.54184          
CA                  -367.31070          1132.68396          2345.13132          
CA                  -372.77448          1141.44527          2357.12692          
CA                  -375.98949          1149.46554          2370.41699          
CA                  -381.81705          1157.76774          2382.88403          
CA                  -387.60623          1162.54552          2396.70688          
CA                  -392.77209          1170.47866          2409.62546          
CA                  -401.04829          1176.17484          2422.07546          
CA                  -406.51227          1184.12626          2434.71992          
CA                  -412.98331          1192.80538          2446.48729          
CA                  -415.57331          1201.34982          2459.74648          
CA                  -419.21126          1211.80285          2471.31770          
CA                  -423.96885          1220.17028          2483.95358          
CA                  -427.95503          1231.20105          2494.75754          
CA                  -435.49532          1240.52812          2505.41274          
CA                  -440.93096          1251.15833          2515.75526          
CA                  -447.96001          1260.53080          2526.37108          
CA                  -452.42211          1270.48212          2537.99179          
CA                  -456.00201          1282.94748          2547.27659          
CA                  -457.87577          1293.75250          2558.43970          
CA                  -458.83883          1306.69098          2567.61442          
CA                  -460.65568          1318.19145          2578.37735          
CA                  -459.08313          1330.02989          2589.11062          
CA                  -459.82855          1341.68779          2599.93936          
CA                  -459.56949          1350.30992          2613.22251          
CA                  -460.77108          1361.05633          2625.24655          
CA                  -461.11814          1369.23545          2638.99937          
CA                  -459.40217          1379.51507          2651.03283          
CA                  -460.04308          1388.53843          2664.05414          
CA                  -459.00542          1398.82347          2676.09161          
CA                  -459.83912          1408.77162          2688.18052          
CA                  -460.25190          1417.07056          2701.65196          
CA                  -461.15152          1427.26465          2713.88291          
CA                  -460.79680          1436.50597          2726.59097          
CA                  -460.25394          1448.53033          2736.95215          
CA                  -460.79125          1459.79751          2748.46129          
CA                  -459.04742          1471.28423          2759.38551          
CA                  -462.14363          1483.38443          2769.86492          
CA                  -463.63352          1493.83777          2781.72371          
CA                  -467.43382          1504.89419          2792.32322          
CA                  -470.53094          1514.05206          2804.75201          
CA                  -473.30652          1525.56657          2815.20117          
CA                  -479.80562          1535.52963          2825.69911          
CA                  -484.09555          1546.76002          2835.81791          
CA                  -491.79056          1558.20400          2843.89879          
CA                  -496.82380          1569.10821          2854.16930          
